Program Version,EnergyPlus, Version 9.6.0-f420c06a69, YMD=2023.10.12 16:07,
   ** Warning ** Weather file location will be used rather than entered (IDF) Location object.
   **   ~~~   ** ..Location object=DENVER CENTENNIAL CO USA WMO=724666
   **   ~~~   ** ..Weather File Location=Gwangju KJ KOR SRC-TMYx WMO#=471560
   **   ~~~   ** ..due to location differences, Latitude difference=[4.57] degrees, Longitude difference=[232.07] degrees.
   **   ~~~   ** ..Time Zone difference=[16.0] hour(s), Elevation difference=[95.87] percent, [1719.00] meters.
   ** Warning ** SetUpDesignDay: Entered DesignDay Barometric Pressure=81560 differs by more than 10% from Standard Barometric Pressure=100439.
   **   ~~~   ** ...occurs in DesignDay=DENVER CENTENNIAL ANN HTG 99.6% CONDNS DB, Standard Pressure (based on elevation) will be used.
   ** Warning ** GetAirPathData: AirLoopHVAC="EVAP COOLER SYSTEM" has no Controllers.
   ** Warning ** SetUpDesignDay: Entered DesignDay Barometric Pressure=81560 differs by more than 10% from Standard Barometric Pressure=100439.
   **   ~~~   ** ...occurs in DesignDay=DENVER CENTENNIAL ANN CLG 1% CONDNS DB=>MWB, Standard Pressure (based on elevation) will be used.
   ************* Testing Individual Branch Integrity
   ************* All Branches passed integrity testing
   ************* Testing Individual Supply Air Path Integrity
   ************* All Supply Air Paths passed integrity testing
   ************* Testing Individual Return Air Path Integrity
   ************* All Return Air Paths passed integrity testing
   ************* No node connection errors were found.
   ************* Beginning Simulation
   ** Warning ** Temperature out of range [-100. to 200.] (PsyPsatFnTemp)
   **   ~~~   **  Routine=PsyTwbFnTdbWPb, Environment=RUN PERIOD 1, at Simulation time=01/27 12:10 - 12:20
   **   ~~~   **  Input Temperature=-469.15
   ************* Simulation Error Summary *************
   *************
   ************* ===== Recurring Error Summary =====
   ************* The following recurring error messages occurred.
   *************
   *************  ** Warning ** Temperature out of range [-100. to 200.] (PsyPsatFnTemp)
   *************  **   ~~~   **   This error occurred 1 total times;
   *************  **   ~~~   **   during Warmup 0 times;
   *************  **   ~~~   **   during Sizing 0 times.
   *************  **   ~~~   **   Max=-469.153885 C  Min=-469.153885 C
   *************
   ************* EnergyPlus Warmup Error Summary. During Warmup: 0 Warning; 0 Severe Errors.
   ************* EnergyPlus Sizing Error Summary. During Sizing: 0 Warning; 0 Severe Errors.
   ************* EnergyPlus Completed Successfully-- 5 Warning; 0 Severe Errors; Elapsed Time=00hr 00min  1.92sec
