Program Version,EnergyPlus, Version 9.6.0-f420c06a69, YMD=2023.10.12 16:07,
Var Type (reported time step),Var Report Type,Variable Name [Units]
Zone,Meter,EnergyTransfer:Facility [J]
Zone,Meter,EnergyTransfer:Building [J]
Zone,Meter,EnergyTransfer:Zone:MAIN ZONE [J]
Zone,Meter,Heating:EnergyTransfer [J]
Zone,Meter,Heating:EnergyTransfer:Zone:MAIN ZONE [J]
Zone,Meter,General:Heating:EnergyTransfer [J]
Zone,Meter,General:Heating:EnergyTransfer:Zone:MAIN ZONE [J]
Zone,Meter,Cooling:EnergyTransfer [J]
Zone,Meter,Cooling:EnergyTransfer:Zone:MAIN ZONE [J]
Zone,Meter,General:Cooling:EnergyTransfer [J]
Zone,Meter,General:Cooling:EnergyTransfer:Zone:MAIN ZONE [J]
Zone,Meter,EnergyTransfer:HVAC [J]
Zone,Meter,Baseboard:EnergyTransfer [J]
Zone,Meter,Electricity:Facility [J]
Zone,Meter,Electricity:HVAC [J]
Zone,Meter,Heating:Electricity [J]
Zone,Meter,General:Heating:Electricity [J]
Zone,Meter,Fans:Electricity [J]
Zone,Meter,General:Fans:Electricity [J]
Zone,Meter,Cooling:Electricity [J]
Zone,Meter,General:Cooling:Electricity [J]
Zone,Meter,Water:Facility [m3]
Zone,Meter,Water:HVAC [m3]
Zone,Meter,Cooling:Water [m3]
Zone,Meter,General:Cooling:Water [m3]
Zone,Meter,MainsWater:Facility [m3]
Zone,Meter,MainsWater:HVAC [m3]
Zone,Meter,Cooling:MainsWater [m3]
Zone,Meter,General:Cooling:MainsWater [m3]
Zone,Meter,ElectricityPurchased:Facility [J]
Zone,Meter,ElectricityPurchased:Plant [J]
Zone,Meter,Cogeneration:ElectricityPurchased [J]
Zone,Meter,General:Cogeneration:ElectricityPurchased [J]
Zone,Meter,ElectricitySurplusSold:Facility [J]
Zone,Meter,ElectricitySurplusSold:Plant [J]
Zone,Meter,Cogeneration:ElectricitySurplusSold [J]
Zone,Meter,General:Cogeneration:ElectricitySurplusSold [J]
Zone,Meter,ElectricityNet:Facility [J]
Zone,Meter,ElectricityNet:Plant [J]
Zone,Meter,Cogeneration:ElectricityNet [J]
Zone,Meter,General:Cogeneration:ElectricityNet [J]
Zone,Meter,Carbon Equivalent:Facility [kg]
Zone,Meter,CarbonEquivalentEmissions:Carbon Equivalent [kg]
